Circuit: * C:\Users\Stephen Johnston\Desktop\School Stuff\Quarter 8\IEEE\Radio workshop\Draft3.asc

Direct Newton iteration for .op point succeeded.

Date: Sun Nov 04 11:46:40 2018
Total elapsed time: 4.784 seconds.

tnom = 27
temp = 27
method = modified trap
totiter = 333708
traniter = 333702
tranpoints = 160005
accept = 96014
rejected = 63991
matrix size = 18
fillins = 0
solver = Normal
Matrix Compiler1: 1.14 KB object code size  0.2/0.2/[0.2]
Matrix Compiler2: off  [0.1]/0.2/0.2

