Circuit: * C:\Users\Stephen Johnston\Desktop\School Stuff\Quarter 8\IEEE\Radio workshop\Draft2.asc

Direct Newton iteration for .op point succeeded.

Date: Thu Oct 04 14:15:11 2018
Total elapsed time: 0.170 seconds.

tnom = 27
temp = 27
method = modified trap
totiter = 2087
traniter = 2082
tranpoints = 1042
accept = 1042
rejected = 0
matrix size = 10
fillins = 0
solver = Normal
Matrix Compiler1: 578 bytes object code size  0.1/0.1/[0.0]
Matrix Compiler2: off  [0.1]/0.1/0.1

