Circuit: * C:\Users\Stephen Johnston\Desktop\School Stuff\Quarter 8\IEEE\Radio workshop\Filter.asc

Direct Newton iteration for .op point succeeded.

Date: Sun Sep 30 10:45:52 2018
Total elapsed time: 0.810 seconds.

tnom = 27
temp = 27
method = modified trap
totiter = 158310
traniter = 158303
tranpoints = 74223
accept = 52375
rejected = 21848
matrix size = 8
fillins = 0
solver = Normal
Matrix Compiler1:      18 opcodes  0.2/[0.0]/0.0
Matrix Compiler2: 540 bytes object code size  0.1/0.1/[0.0]

